taskid: 61 hostname: prod-110
Quilting with   1 groups of   0 I/O tasks.
 Ntasks in X            8 , ntasks in Y            8
  Domain # 1: dx = 15000.000 m
--- ERROR: ghg_input available only for these radiation schemes: CAM, RRTM, RRTMG, RRTMG_fast
           And the LW and SW schemes must be reasonably paired together:
           OK = CAM LW with CAM SW
           OK = RRTM, RRTMG LW or SW, RRTMG_fast LW or SW may be mixed
WRF V4.4.1 MODEL
No git found or not a git repository, git commit version not available.
 *************************************
 Parent domain
 ids,ide,jds,jde            1         201           1         201
 ims,ime,jms,jme          119         157         169         206
 ips,ipe,jps,jpe          126         150         176         201
 *************************************
DYNAMICS OPTION: Eulerian Mass Coordinate
   alloc_space_field: domain            1 ,               24436796  bytes allocated
  med_initialdata_input: calling input_input
   Input data is acceptable to use:
 CURRENT DATE          = 2007-09-01_00:00:00
 SIMULATION START DATE = 2007-09-01_00:00:00
Max map factor in domain 1 =  1.00. Scale the dt in the model accordingly.
INPUT LandUse = "USGS"
 LANDUSE TYPE = "USGS" FOUND          41  CATEGORIES           2  SEASONS WATER CATEGORY =           16  SNOW CATEGORY =            0
 head_grid%id=            1
 ids, ide, jds, jde, kds, kde=            1         201           1         201
           1          21
 ims, ime, jms, jme, kms, kme=          119         157         169         206
           1          21
 ips, ipe, jps, jpe, kps, kpe=          126         150         176         201
           1          21
 next_observation_pdaf.F90: Set number of time steps in forecast!
 distribute_state_pdaf: initialization of model fields here!
 distribute_state_pdaf: DONE!
 init_pdaf, DONE!
f: DONE!
 init_ens_pdaf, state_p(58650), ens_p(58650,2), dim_p=    97.7342224121094     
   97.7342224121094           139250
 prepoststep_pdaf.F90: functionality of prepoststep 
 dim_state=      8888000
 next_observation_pdaf.F90: Set number of time steps in forecast!
 distribute_state_pdaf: initialization of model fields here!
 distribute_state_pdaf: DONE!
 init_pdaf, DONE!
