taskid: 1 hostname: prod-102
 module_io_quilt_old.F        2931 F
Quilting with   1 groups of   0 I/O tasks.
 Ntasks in X            1 , ntasks in Y            2
  Domain # 1: dx = 15000.000 m
--- ERROR: ghg_input available only for these radiation schemes: CAM, RRTM, RRTMG, RRTMG_fast
           And the LW and SW schemes must be reasonably paired together:
           OK = CAM LW with CAM SW
           OK = RRTM, RRTMG LW or SW, RRTMG_fast LW or SW may be mixed
WRF V4.4.1 MODEL
No git found or not a git repository, git commit version not available.
 *************************************
 Parent domain
 ids,ide,jds,jde            1         201           1         201
 ims,ime,jms,jme           -4         206          94         206
 ips,ipe,jps,jpe            1         201         101         201
 *************************************
DYNAMICS OPTION: Eulerian Mass Coordinate
   alloc_space_field: domain            1 ,              305737864  bytes allocated
  med_initialdata_input: calling input_input
   Input data is acceptable to use:
 CURRENT DATE          = 2007-09-01_00:00:00
 SIMULATION START DATE = 2007-09-01_00:00:00
Max map factor in domain 1 =  1.00. Scale the dt in the model accordingly.
INPUT LandUse = "USGS"
 LANDUSE TYPE = "USGS" FOUND          41  CATEGORIES           2  SEASONS WATER CATEGORY =           16  SNOW CATEGORY =            0
 Tile Strategy is not specified. Assuming 1D-Y
WRF TILE   1 IS      1 IE    201 JS    101 JE    201
WRF NUMBER OF TILES =   1
d01 2007-09-01_00:00:00  ----------------------------------------
d01 2007-09-01_00:00:00  W-DAMPING  BEGINS AT W-COURANT NUMBER =    1.000000
d01 2007-09-01_00:00:00  ----------------------------------------
forrtl: error (78): process killed (SIGTERM)
Image              PC                Routine            Line        Source             
wrf.exe            00000000033096EB  for__signal_handl     Unknown  Unknown
libpthread-2.28.s  000015555286FCE0  Unknown               Unknown  Unknown
libc-2.28.so       00001555521E5E33  Unknown               Unknown  Unknown
wrf.exe            000000000312D6F6  Unknown               Unknown  Unknown
wrf.exe            00000000031271DC  Unknown               Unknown  Unknown
wrf.exe            0000000001779D0B  Unknown               Unknown  Unknown
wrf.exe            00000000016A75D4  Unknown               Unknown  Unknown
wrf.exe            00000000014FE9F8  Unknown               Unknown  Unknown
wrf.exe            00000000005B76BB  Unknown               Unknown  Unknown
wrf.exe            0000000000416298  Unknown               Unknown  Unknown
wrf.exe            000000000041624F  Unknown               Unknown  Unknown
wrf.exe            00000000004161E2  Unknown               Unknown  Unknown
libc-2.28.so       0000155552150CF3  __libc_start_main     Unknown  Unknown
wrf.exe            00000000004160EE  Unknown               Unknown  Unknown
wrf.exe            00000000004161E2  Unknown               Unknown  Unknown
libc-2.28.so       0000155552150CF3  __libc_start_main     Unknown  Unknown
wrf.exe            00000000004160EE  Unknown               Unknown  Unknown
wrf.exe            00000000004160EE  Unknown               Unknown  Unknown
libc-2.28.so       0000155552150CF3  __libc_start_main     Unknown  Unknown
wrf.exe            00000000004160EE  Unknown               Unknown  Unknown
