taskid: 0 hostname: prod-102
Quilting with   1 groups of   0 I/O tasks.
 Ntasks in X            1 , ntasks in Y            1
  Domain # 1: dx = 15000.000 m
--- ERROR: ghg_input available only for these radiation schemes: CAM, RRTM, RRTMG, RRTMG_fast
           And the LW and SW schemes must be reasonably paired together:
           OK = CAM LW with CAM SW
           OK = RRTM, RRTMG LW or SW, RRTMG_fast LW or SW may be mixed
WRF V4.4.1 MODEL
No git found or not a git repository, git commit version not available.
 *************************************
 Parent domain
 ids,ide,jds,jde            1         201           1         201
 ims,ime,jms,jme           -4         206          -4         206
 ips,ipe,jps,jpe            1         201           1         201
 *************************************
DYNAMICS OPTION: Eulerian Mass Coordinate
   alloc_space_field: domain            1 ,              563061288  bytes allocated
  med_initialdata_input: calling input_input
   Input data is acceptable to use: wrfinput_d01
 CURRENT DATE          = 2007-09-01_00:00:00
 SIMULATION START DATE = 2007-09-01_00:00:00
Timing for processing wrfinput file (stream 0) for domain        1:    0.11836 elapsed seconds
Max map factor in domain 1 =  1.00. Scale the dt in the model accordingly.
INPUT LandUse = "USGS"
 LANDUSE TYPE = "USGS" FOUND          41  CATEGORIES           2  SEASONS WATER CATEGORY =           16  SNOW CATEGORY =            0
 head_grid%id=            1
 ids, ide, jds, jde, kds, kde=            1         201           1         201
           1          21
 ims, ime, jms, jme, kms, kme=           -4         206          -4         206
           1          21
 ips, ipe, jps, jpe, kps, kpe=            1         201           1         201
           1          21
 next_observation_pdaf.F90: Set number of time steps in forecast!
 distribute_state_pdaf: initialization of model fields here!
   6.948928      -6.520113       2925.653      3.1292383E-03
   514.4277      -2.354291      8.4055216E+07   89.90430    
   467.3887      -1.622426      3.5341796E+07   37.80110    
   702.5941      0.0000000E+00  3.4606668E+07   37.01482    
   283.0825      0.0000000E+00   4645772.       4.969054    
  0.0000000E+00  0.0000000E+00  0.0000000E+00
  1.5195385E-02  0.0000000E+00   134.1028    
  0.0000000E+00  0.0000000E+00  0.0000000E+00
 distribute_state_pdaf: DONE!
 init_pdaf, DONE!
Timing for Writing wrfout_d01_2007-09-01_00:00:00 for domain        1:    1.40214 elapsed seconds
 Tile Strategy is not specified. Assuming 1D-Y
WRF TILE   1 IS      1 IE    201 JS      1 JE    100
WRF NUMBER OF TILES =   1
d01 2007-09-01_00:00:00  ----------------------------------------
d01 2007-09-01_00:00:00  W-DAMPING  BEGINS AT W-COURANT NUMBER =    1.000000
d01 2007-09-01_00:00:00  ----------------------------------------
Timing for main: time 2007-09-01_00:01:00 on domain   1:    3.65524 elapsed seconds
Timing for main: time 2007-09-01_00:02:00 on domain   1:    2.29608 elapsed seconds
Timing for main: time 2007-09-01_00:03:00 on domain   1:    2.28856 elapsed seconds
Timing for main: time 2007-09-01_00:04:00 on domain   1:    2.23027 elapsed seconds
0:00:00 Max   W:     97    191     13 W:  -52.61  w-cfl:    4.25  dETA:    0.03
d01 2007-09-01_00:00:00         1089  points exceeded v_cfl = 2 in domain d01 at time 2007-09-01_00:00:00 hours
d01 2007-09-01_00:00:00 Max   W:     97    192     13 W:  -67.03  w-cfl:    4.27  dETA:    0.03
Timing for main: time 2007-09-01_00:01:00 on domain   1:    5.90392 elapsed seconds
Timing for main: time 2007-09-01_00:02:00 on domain   1:    4.49380 elapsed seconds
  # PEs per ensemble task and local ensemble sizes: 
PDAF     Task     1     2     3     4     5     6     7     8     9    10    11    12    13    14    15    16    17    18    19    20    21    22    23    24    25    26    27    28    29    30    31    32    33
PDAF     #PEs     2     2     2     2     2     2     2     2     2     2     2     2     2     2     2     2     2     2     2     2     2     2     2     2     1     1     1     1     1     1     1     1     1
PDAF        N     1     1     1     1     1     1     1     1     1     1     1     1     1     1     1     1     1     1     1     1     1     1     1     1     1     1     1     1     1     1     1     1     1

PDAF: Call routine for ensemble initialization
 Read trajectory from file: /albedo/work/user/chshao001/PDAFTOOLS/covarmn.nc
 init_ens_pdaf: generate ensemble of model states
         --- generate from model initial state_p
 collect_state_pdaf: initialization of state vector here!
   12.54053      -9.710361       42328.20      8.5292332E-02
   12.54053      -12.54053     -2.4336365E-05 -4.9038360E-11
  0.0000000E+00  0.0000000E+00  0.0000000E+00  0.0000000E+00
   882.3965      0.0000000E+00  2.3412046E+08   471.7584    
   283.2577      0.0000000E+00  3.1396378E+07   63.26445    
  0.0000000E+00  0.0000000E+00  0.0000000E+00
  1.6000506E-02  0.0000000E+00   914.3245    
  0.0000000E+00  0.0000000E+00  0.0000000E+00
 collect_state_pdaf: DONE!

         Generate state ensemble from covariance matrix
         --- use rank reduction and 2nd order exact sampling (SEIK type)
         --- Ensemble size:     40
         --- number of EOFs:    39
 mean(U) -9.2413700E-08
 mean(V) -2.7236824E-11
 mean(W)  0.0000000E+00
 mean(PH)   505.1361    
 mean(T)   71.31826    
 mean(QV)  0.0000000E+00
 mean(QC)  2.0514850E-03
 mean(QR)  0.0000000E+00
   1332.78109007859        929.798848607893        837.377664831088     
   755.529896108578        641.142021388380        587.917734369621     
   549.163800369793        513.223545080838        443.824901508275     
   415.637536918910        387.366175087383        332.079011738065     
   293.902448419701        290.519967714699        277.683118750555     
   267.598422529237        263.199872636903        248.944238645853     
   244.450530855681        213.234301656064        210.986789626797     
   193.031707360875        178.077911626694        150.672436755140     
   142.281074561093        127.411845417234        112.258684779988     
   109.718860762601        100.298481960650        88.5745025871188     
   75.8716196707292        66.4366073977505        54.2740743068026     
   43.5704267430435        37.4112321773996        30.5853616842222     
   25.7914769673742        18.5380781449800        14.3309579015531     

 ------- END Reading svals and eofV-------------

PDAF     ******************************************************
PDAF     *                  PDAF_SampleEns                    *
PDAF     *                                                    *
PDAF     *  Sample an ensemble with 2nd-order exact sampling  *
PDAF     *    based on the Sangoma tool Sangoma_SampleEns.    *
PDAF     ******************************************************

PDAF     Sample state ensemble from covariance matrix
PDAF     given as EOF vectors and singular values
PDAF     --- Ensemble size:     40
PDAF     --- number of EOFs:    39
PDAF     --- Compute random Omega
 complete init_ens_pdaf

PDAF: Initialization completed
PDAF     --- duration of PDAF initialization:    11.536 s


PDAF ----------------------------------------------------------------
PDAF                    +++++ ASSIMILATION +++++
PDAF ----------------------------------------------------------------
PDAF     Call pre-post routine at initial time
 prepoststep_pdaf.F90: functionality of prepoststep 
        Analyze forecasted state ensemble
 dim_state=      6488000
        Analyze initial state ensemble
        --- compute ensemble mean
WRF-PDAF      SPREAD or RMS errors according to sample variance
WRF-PDAF    SPREAD-ini     U    4.9366E-01
WRF-PDAF    SPREAD-ini     V    4.6508E-01
WRF-PDAF    SPREAD-ini     W    5.4591E-02
WRF-PDAF    SPREAD-ini    PH    1.0578E+02
WRF-PDAF    SPREAD-ini     T    4.7159E-01
WRF-PDAF    SPREAD-ini    QV    2.4377E-04
WRF-PDAF    SPREAD-ini    QC    1.8529E-05
WRF-PDAF    SPREAD-ini    QR    2.5056E-05
PDAF     --- duration of prestep:     0.241 s
PDAF Forecast -------------------------------------------------------
 next_observation_pdaf.F90: Set number of time steps in forecast!
 WRF-PDAF           0 Next observation at time step          60


PDAF            PDAF Timing information - call-back routines
PDAF        ----------------------------------------------------
PDAF          Initialize PDAF:                    11.536 s
PDAF            init_ens_pdaf:                      11.277 s
PDAF          Ensemble forecast:                   0.000 s
PDAF            MPI communication in PDAF:           0.000 s
PDAF            distribute_state_pdaf:               0.000 s
PDAF            collect_state_pdaf:                  0.000 s
PDAF          LESTKF analysis:                     0.000 s
PDAF            PDAF-internal operations:            0.000 s
PDAF            init_n_domains_pdaf:                 0.000 s
PDAF            init_dim_obs_f_pdaf:                 0.000 s
PDAF            obs_op_f_pdaf:                       0.000 s
PDAF            init_dim_l_pdaf:                     0.000 s
PDAF            init_dim_obs_l_pdaf:                 0.000 s
PDAF            g2l_state_pdaf:                      0.000 s
PDAF            g2l_obs_pdaf:                        0.000 s
PDAF            init_obs_l_pdaf:                     0.000 s
PDAF            prodRinvA_l_pdaf:                    0.000 s
PDAF            l2g_state_pdaf:                      0.000 s
PDAF          prepoststep_pdaf:                    0.241 s
PDAF     Evolve state ensemble
PDAF     --- Distribute sub-ensembles
 distribute_state_pdaf: initialization of model fields here!
   9.449373      -9.710361      -2809.347     -5.6609013E-03
   12.54053      -12.54053      -6896.651     -1.3896918E-02
   2.388625      -2.102861      -18.88643     -3.8056613E-05
   882.3965      0.0000000E+00  1.1837806E+08   238.5346    
   283.2577      -2.420459      3.0662760E+07   61.78620    
  1.8281220E-02  0.0000000E+00   839.8893    
  1.6000506E-02  0.0000000E+00   94.98789    
  2.7264683E-03  0.0000000E+00  0.9240335    
 distribute_state_pdaf: DONE!
 init_pdaf, DONE!
Timing for Writing wrfout_d01_2007-09-01_00:00:00 for domain        1:    1.22030 elapsed seconds
 Tile Strategy is not specified. Assuming 1D-Y
WRF TILE   1 IS      1 IE    201 JS      1 JE    100
WRF NUMBER OF TILES =   1
d01 2007-09-01_00:00:00  ----------------------------------------
d01 2007-09-01_00:00:00  W-DAMPING  BEGINS AT W-COURANT NUMBER =    1.000000
d01 2007-09-01_00:00:00  ----------------------------------------
Timing for main: time 2007-09-01_00:01:00 on domain   1:    3.39667 elapsed seconds
 assimilate_pdaf.F90: here!
Timing for main: time 2007-09-01_00:02:00 on domain   1:    2.14887 elapsed seconds
 assimilate_pdaf.F90: here!
Timing for main: time 2007-09-01_00:03:00 on domain   1:    2.16794 elapsed seconds
 assimilate_pdaf.F90: here!
Timing for main: time 2007-09-01_00:04:00 on domain   1:    2.17821 elapsed seconds
 assimilate_pdaf.F90: here!
