taskid: 26 hostname: prod-110
Quilting with   1 groups of   0 I/O tasks.
 Ntasks in X            8 , ntasks in Y            8
  Domain # 1: dx = 15000.000 m
--- ERROR: ghg_input available only for these radiation schemes: CAM, RRTM, RRTMG, RRTMG_fast
           And the LW and SW schemes must be reasonably paired together:
           OK = CAM LW with CAM SW
           OK = RRTM, RRTMG LW or SW, RRTMG_fast LW or SW may be mixed
WRF V4.4.1 MODEL
No git found or not a git repository, git commit version not available.
 *************************************
 Parent domain
 ids,ide,jds,jde            1         201           1         201
 ims,ime,jms,jme           44          82          69         107
 ips,ipe,jps,jpe           51          75          76         100
 *************************************
DYNAMICS OPTION: Eulerian Mass Coordinate
   alloc_space_field: domain            1 ,               24937256  bytes allocated
  med_initialdata_input: calling input_input
   Input data is acceptable to use:
 CURRENT DATE          = 2007-09-01_00:00:00
 SIMULATION START DATE = 2007-09-01_00:00:00
Max map factor in domain 1 =  1.00. Scale the dt in the model accordingly.
INPUT LandUse = "USGS"
 LANDUSE TYPE = "USGS" FOUND          41  CATEGORIES           2  SEASONS WATER CATEGORY =           16  SNOW CATEGORY =            0
 head_grid%id=            1
 ids, ide, jds, jde, kds, kde=            1         201           1         201
           1          21
 ims, ime, jms, jme, kms, kme=           44          82          69         107
           1          21
 ips, ipe, jps, jpe, kps, kpe=           51          75          76         100
           1          21
 init_ens_pdaf: generate ensemble of model states
         --- gen distribute_state_pdaf: initialization of model fields here!
 distribute_state_pdaf: DONE!
 init_pdaf, DONE!
-------------- FATAL CALLED ---------------
un-normalized TimeInterval not allowed:  ESMF_TimeIntervalIsPositive arg
-------------------------------------------
y of prepoststep 
 dim_state=      8888000
 next_observation_pdaf.F90: Set number of time steps in forecast!
 distribute_state_pdaf: initialization of model fields here!
 distribute_state_pdaf: DONE!
 init_pdaf, DONE!
