taskid: 0 hostname: prod-024
Quilting with   1 groups of   0 I/O tasks.
 Ntasks in X            1 , ntasks in Y            1
IDEAL V4.4.1 PREPROCESSOR
No git found or not a git repository, git commit version not available.
  Domain # 1: dx = 15000.000 m
--- ERROR: ghg_input available only for these radiation schemes: CAM, RRTM, RRTMG, RRTMG_fast
           And the LW and SW schemes must be reasonably paired together:
           OK = CAM LW with CAM SW
           OK = RRTM, RRTMG LW or SW, RRTMG_fast LW or SW may be mixed
 *************************************
 Parent domain
 ids,ide,jds,jde            1         201           1         201
 ims,ime,jms,jme           -4         206          -4         206
 ips,ipe,jps,jpe            1         201           1         201
 *************************************
DYNAMICS OPTION: Eulerian Mass Coordinate
   alloc_space_field: domain            1 ,              563061288  bytes allocated
  pi is    3.141593    
 lm,icm-lm,icm+lm =           25          75         125
    f =   4.9999999E-05
    lat =    20.04980    
  getting dry sounding for base state 
  input sounding surface parameters 
  surface pressure (mb)    1015.100    
  surface pot. temp (K)    298.1718    
  surface mixing ratio (g/kg)    18.20000    
   1  0.132E+03  0.299E+03  0.176E+02  0.000E+00  0.000E+00
   2  0.583E+03  0.301E+03  0.153E+02  0.000E+00  0.000E+00
   3  0.105E+04  0.302E+03  0.130E+02  0.000E+00  0.000E+00
   4  0.155E+04  0.304E+03  0.110E+02  0.000E+00  0.000E+00
   5  0.206E+04  0.307E+03  0.840E+01  0.000E+00  0.000E+00
   6  0.261E+04  0.309E+03  0.710E+01  0.000E+00  0.000E+00
   7  0.318E+04  0.312E+03  0.580E+01  0.000E+00  0.000E+00
   8  0.379E+04  0.315E+03  0.460E+01  0.000E+00  0.000E+00
   9  0.444E+04  0.318E+03  0.360E+01  0.000E+00  0.000E+00
  10  0.514E+04  0.321E+03  0.320E+01  0.000E+00  0.000E+00
  11  0.589E+04  0.324E+03  0.210E+01  0.000E+00  0.000E+00
  12  0.670E+04  0.328E+03  0.140E+01  0.000E+00  0.000E+00
  13  0.760E+04  0.332E+03  0.000E+00  0.000E+00  0.000E+00
  14  0.858E+04  0.335E+03  0.000E+00  0.000E+00  0.000E+00
  15  0.968E+04  0.338E+03  0.000E+00  0.000E+00  0.000E+00
  16  0.109E+05  0.341E+03  0.000E+00  0.000E+00  0.000E+00
  17  0.124E+05  0.345E+03  0.000E+00  0.000E+00  0.000E+00
  18  0.132E+05  0.348E+03  0.000E+00  0.000E+00  0.000E+00
  19  0.142E+05  0.353E+03  0.000E+00  0.000E+00  0.000E+00
  20  0.153E+05  0.364E+03  0.000E+00  0.000E+00  0.000E+00
  21  0.166E+05  0.385E+03  0.000E+00  0.000E+00  0.000E+00
  22  0.179E+05  0.418E+03  0.000E+00  0.000E+00  0.000E+00
  23  0.196E+05  0.467E+03  0.000E+00  0.000E+00  0.000E+00
  24  0.207E+05  0.500E+03  0.000E+00  0.000E+00  0.000E+00
  25  0.221E+05  0.541E+03  0.000E+00  0.000E+00  0.000E+00
  26  0.240E+05  0.596E+03  0.000E+00  0.000E+00  0.000E+00
  27  0.300E+05  0.778E+03  0.000E+00  0.000E+00  0.000E+00
  number of input levels =           27
  surface density is    1.181138    
  surface pi is         1.004291    
  sounding 
   k  height(m)  press (Pa) pd(Pa) theta (K) den(kg/m^3)  u(m/s)     v(m/s)    q
 v(g/g) 
   1  1.320E+02  9.999E+04  9.999E+04  2.991E+02  1.165E+00  0.000E+00  0.000E+00  0.000E+00
   2  5.830E+02  9.494E+04  9.494E+04  3.005E+02  1.117E+00  0.000E+00  0.000E+00  0.000E+00
   3  1.054E+03  8.989E+04  8.989E+04  3.019E+02  1.070E+00  0.000E+00  0.000E+00  0.000E+00
   4  1.547E+03  8.484E+04  8.484E+04  3.042E+02  1.018E+00  0.000E+00  0.000E+00  0.000E+00
   5  2.063E+03  7.982E+04  7.982E+04  3.067E+02  9.672E-01  0.000E+00  0.000E+00  0.000E+00
   6  2.609E+03  7.478E+04  7.478E+04  3.093E+02  9.152E-01  0.000E+00  0.000E+00  0.000E+00
   7  3.182E+03  6.978E+04  6.978E+04  3.119E+02  8.638E-01  0.000E+00  0.000E+00  0.000E+00
   8  3.792E+03  6.476E+04  6.476E+04  3.147E+02  8.119E-01  0.000E+00  0.000E+00  0.000E+00
   9  4.442E+03  5.975E+04  5.975E+04  3.176E+02  7.593E-01  0.000E+00  0.000E+00  0.000E+00
  10  5.138E+03  5.475E+04  5.475E+04  3.210E+02  7.059E-01  0.000E+00  0.000E+00  0.000E+00
  11  5.888E+03  4.975E+04  4.975E+04  3.245E+02  6.522E-01  0.000E+00  0.000E+00  0.000E+00
  12  6.703E+03  4.476E+04  4.476E+04  3.281E+02  5.980E-01  0.000E+00  0.000E+00  0.000E+00
  13  7.595E+03  3.976E+04  3.976E+04  3.318E+02  5.434E-01  0.000E+00  0.000E+00  0.000E+00
  14  8.581E+03  3.477E+04  3.477E+04  3.351E+02  4.889E-01  0.000E+00  0.000E+00  0.000E+00
  15  9.682E+03  2.979E+04  2.979E+04  3.383E+02  4.336E-01  0.000E+00  0.000E+00  0.000E+00
  16  1.094E+04  2.481E+04  2.481E+04  3.414E+02  3.770E-01  0.000E+00  0.000E+00  0.000E+00
  17  1.240E+04  1.983E+04  1.983E+04  3.450E+02  3.179E-01  0.000E+00  0.000E+00  0.000E+00
  18  1.324E+04  1.734E+04  1.734E+04  3.481E+02  2.863E-01  0.000E+00  0.000E+00  0.000E+00
  19  1.418E+04  1.485E+04  1.485E+04  3.532E+02  2.526E-01  0.000E+00  0.000E+00  0.000E+00
  20  1.526E+04  1.236E+04  1.236E+04  3.638E+02  2.152E-01  0.000E+00  0.000E+00  0.000E+00
  21  1.657E+04  9.873E+03  9.873E+03  3.852E+02  1.731E-01  0.000E+00  0.000E+00  0.000E+00
  22  1.788E+04  7.882E+03  7.882E+03  4.181E+02  1.357E-01  0.000E+00  0.000E+00  0.000E+00
  23  1.962E+04  5.885E+03  5.885E+03  4.671E+02  9.862E-02  0.000E+00  0.000E+00  0.000E+00
  24  2.074E+04  4.897E+03  4.897E+03  4.998E+02  8.082E-02  0.000E+00  0.000E+00  0.000E+00
  25  2.214E+04  3.908E+03  3.908E+03  5.409E+02  6.357E-02  0.000E+00  0.000E+00  0.000E+00
  26  2.397E+04  2.916E+03  2.916E+03  5.962E+02  4.679E-02  0.000E+00  0.000E+00  0.000E+00
  27  3.000E+04  1.029E+03  1.029E+03  7.781E+02  1.703E-02  0.000E+00  0.000E+00  0.000E+00
  returned from reading sounding, nl_in is           27
  ptop is    2594.079    
  base state grid%mub(1,1), p_surf is    98874.56       101468.6    
  getting moist sounding for full state 
  input sounding surface parameters 
  surface pressure (mb)    1015.100    
  surface pot. temp (K)    298.1718    
  surface mixing ratio (g/kg)    18.20000    
   1  0.132E+03  0.299E+03  0.176E+02  0.000E+00  0.000E+00
   2  0.583E+03  0.301E+03  0.153E+02  0.000E+00  0.000E+00
   3  0.105E+04  0.302E+03  0.130E+02  0.000E+00  0.000E+00
   4  0.155E+04  0.304E+03  0.110E+02  0.000E+00  0.000E+00
   5  0.206E+04  0.307E+03  0.840E+01  0.000E+00  0.000E+00
   6  0.261E+04  0.309E+03  0.710E+01  0.000E+00  0.000E+00
   7  0.318E+04  0.312E+03  0.580E+01  0.000E+00  0.000E+00
   8  0.379E+04  0.315E+03  0.460E+01  0.000E+00  0.000E+00
   9  0.444E+04  0.318E+03  0.360E+01  0.000E+00  0.000E+00
  10  0.514E+04  0.321E+03  0.320E+01  0.000E+00  0.000E+00
  11  0.589E+04  0.324E+03  0.210E+01  0.000E+00  0.000E+00
  12  0.670E+04  0.328E+03  0.140E+01  0.000E+00  0.000E+00
  13  0.760E+04  0.332E+03  0.000E+00  0.000E+00  0.000E+00
  14  0.858E+04  0.335E+03  0.000E+00  0.000E+00  0.000E+00
  15  0.968E+04  0.338E+03  0.000E+00  0.000E+00  0.000E+00
  16  0.109E+05  0.341E+03  0.000E+00  0.000E+00  0.000E+00
  17  0.124E+05  0.345E+03  0.000E+00  0.000E+00  0.000E+00
  18  0.132E+05  0.348E+03  0.000E+00  0.000E+00  0.000E+00
  19  0.142E+05  0.353E+03  0.000E+00  0.000E+00  0.000E+00
  20  0.153E+05  0.364E+03  0.000E+00  0.000E+00  0.000E+00
  21  0.166E+05  0.385E+03  0.000E+00  0.000E+00  0.000E+00
  22  0.179E+05  0.418E+03  0.000E+00  0.000E+00  0.000E+00
  23  0.196E+05  0.467E+03  0.000E+00  0.000E+00  0.000E+00
  24  0.207E+05  0.500E+03  0.000E+00  0.000E+00  0.000E+00
  25  0.221E+05  0.541E+03  0.000E+00  0.000E+00  0.000E+00
  26  0.240E+05  0.596E+03  0.000E+00  0.000E+00  0.000E+00
  27  0.300E+05  0.778E+03  0.000E+00  0.000E+00  0.000E+00
  number of input levels =           27
  surface density is    1.148624    
  surface pi is         1.004291    
  sounding 
   k  height(m)  press (Pa) pd(Pa) theta (K) den(kg/m^3)  u(m/s)     v(m/s)    q
 v(g/g) 
   1  1.320E+02  1.000E+05  9.959E+04  2.991E+02  1.133E+00  0.000E+00  0.000E+00  1.760E-02
   2  5.830E+02  9.501E+04  9.467E+04  3.005E+02  1.091E+00  0.000E+00  0.000E+00  1.530E-02
   3  1.054E+03  8.999E+04  8.973E+04  3.019E+02  1.049E+00  0.000E+00  0.000E+00  1.300E-02
   4  1.547E+03  8.498E+04  8.477E+04  3.042E+02  1.002E+00  0.000E+00  0.000E+00  1.100E-02
   5  2.063E+03  7.997E+04  7.982E+04  3.067E+02  9.556E-01  0.000E+00  0.000E+00  8.400E-03
   6  2.609E+03  7.495E+04  7.483E+04  3.093E+02  9.064E-01  0.000E+00  0.000E+00  7.100E-03
   7  3.182E+03  6.996E+04  6.987E+04  3.119E+02  8.574E-01  0.000E+00  0.000E+00  5.800E-03
   8  3.792E+03  6.495E+04  6.489E+04  3.147E+02  8.076E-01  0.000E+00  0.000E+00  4.600E-03
   9  4.442E+03  5.994E+04  5.990E+04  3.176E+02  7.567E-01  0.000E+00  0.000E+00  3.600E-03
  10  5.138E+03  5.494E+04  5.492E+04  3.210E+02  7.040E-01  0.000E+00  0.000E+00  3.200E-03
  11  5.888E+03  4.994E+04  4.993E+04  3.245E+02  6.517E-01  0.000E+00  0.000E+00  2.100E-03
  12  6.703E+03  4.493E+04  4.493E+04  3.281E+02  5.983E-01  0.000E+00  0.000E+00  1.400E-03
  13  7.595E+03  3.993E+04  3.993E+04  3.318E+02  5.450E-01  0.000E+00  0.000E+00  0.000E+00
  14  8.581E+03  3.492E+04  3.492E+04  3.351E+02  4.904E-01  0.000E+00  0.000E+00  0.000E+00
  15  9.682E+03  2.992E+04  2.992E+04  3.383E+02  4.350E-01  0.000E+00  0.000E+00  0.000E+00
  16  1.094E+04  2.492E+04  2.492E+04  3.414E+02  3.783E-01  0.000E+00  0.000E+00  0.000E+00
  17  1.240E+04  1.993E+04  1.993E+04  3.450E+02  3.191E-01  0.000E+00  0.000E+00  0.000E+00
  18  1.324E+04  1.743E+04  1.743E+04  3.481E+02  2.874E-01  0.000E+00  0.000E+00  0.000E+00
  19  1.418E+04  1.493E+04  1.493E+04  3.532E+02  2.536E-01  0.000E+00  0.000E+00  0.000E+00
  20  1.526E+04  1.244E+04  1.244E+04  3.638E+02  2.161E-01  0.000E+00  0.000E+00  0.000E+00
  21  1.657E+04  9.935E+03  9.935E+03  3.852E+02  1.738E-01  0.000E+00  0.000E+00  0.000E+00
  22  1.788E+04  7.934E+03  7.934E+03  4.181E+02  1.364E-01  0.000E+00  0.000E+00  0.000E+00
  23  1.962E+04  5.927E+03  5.927E+03  4.671E+02  9.913E-02  0.000E+00  0.000E+00  0.000E+00
  24  2.074E+04  4.934E+03  4.934E+03  4.998E+02  8.126E-02  0.000E+00  0.000E+00  0.000E+00
  25  2.214E+04  3.940E+03  3.940E+03  5.409E+02  6.393E-02  0.000E+00  0.000E+00  0.000E+00
  26  2.397E+04  2.942E+03  2.942E+03  5.962E+02  4.709E-02  0.000E+00  0.000E+00  0.000E+00
  27  3.000E+04  1.041E+03  1.041E+03  7.781E+02  1.718E-02  0.000E+00  0.000E+00  0.000E+00
  grid%ph_1 calc   0.0000000E+00   234.6745       98434.88      -439.6797    
  0.8935709      1.8009603E-02  -7.811837    
   ids,ide,kds,kds  =            1         201           1          21
   its,ite,kts,kts  =            1         201           1          21
   nref,fcor        =          101  4.9999999E-05
   r0,rmax,vmax,zdd =    412500.0       82500.0000000000     
   15.0000000000000        20000.00    
   zref,th0,qv0,thv0:
           1   588.4107       300.5012      1.5327349E-02   303.2610    
           2   1752.718       305.1734      1.0002242E-02   307.0119    
           3   2895.428       310.6113      6.4635305E-03   311.8248    
           4   4020.939       315.6873      4.2541809E-03   316.5009    
           5   5132.126       320.9391      3.2078512E-03   321.5634    
           6   6230.945       326.0247      1.8046476E-03   326.3820    
           7   7317.512       330.6690      4.3177448E-04   330.7558    
           8   8392.333       334.4879      0.0000000E+00   334.4879    
           9   9456.436       337.6960      0.0000000E+00   337.6960    
          10   10511.07       340.4079      0.0000000E+00   340.4079    
          11   11558.41       343.0137      0.0000000E+00   343.0137    
          12   12602.23       345.7743      0.0000000E+00   345.7743    
          13   13650.01       350.3776      0.0000000E+00   350.3776    
          14   14715.47       358.5817      0.0000000E+00   358.5817    
          15   15821.05       373.2374      0.0000000E+00   373.2374    
          16   16999.55       396.1276      0.0000000E+00   396.1276    
          17   18297.04       429.8959      0.0000000E+00   429.8959    
          18   19768.20       469.7448      0.0000000E+00   469.7448    
          19   21491.16       520.6348      0.0000000E+00   520.6348    
          20   23601.79       583.0098      0.0000000E+00   583.0098    
   prs0,pi0,rh0:
           1   95071.23      0.9856627      0.8076763    
           2   83060.59      0.9483530      0.7071366    
           3   72507.64      0.9122411      0.5955762    
           4   63221.23      0.8772103      0.5336018    
           5   55039.28      0.8431532      0.5549531    
           6   47827.54      0.8099896      0.4471764    
           7   41472.01      0.7776554      0.1626284    
           8   35868.34      0.7460615      0.0000000E+00
           9   30924.18      0.7151068      0.0000000E+00
          10   26560.97      0.6846967      0.0000000E+00
          11   22710.46      0.6547334      0.0000000E+00
          12   19312.39      0.6251052      0.0000000E+00
          13   16313.61      0.5956817      0.0000000E+00
          14   13667.19      0.5663060      0.0000000E+00
          15   11331.73      0.5367832      0.0000000E+00
          16   9270.699      0.5068614      0.0000000E+00
          17   7451.843      0.4762003      0.0000000E+00
          18   5846.709      0.4443130      0.0000000E+00
          19   4430.184      0.4104529      0.0000000E+00
          20   3180.104      0.3733585      0.0000000E+00
   zref,dz:
           0  -588.4107    
           1   588.4107    
           2   1752.718       1164.307    
           3   2895.428       1142.710    
           4   4020.939       1125.511    
           5   5132.126       1111.187    
           6   6230.945       1098.819    
           7   7317.512       1086.567    
           8   8392.333       1074.821    
           9   9456.436       1064.103    
          10   10511.07       1054.631    
          11   11558.41       1047.341    
          12   12602.23       1043.825    
          13   13650.01       1047.779    
          14   14715.47       1065.458    
          15   15821.05       1105.583    
          16   16999.55       1178.498    
          17   18297.04       1297.492    
          18   19768.20       1471.152    
          19   21491.16       1722.967    
          20   23601.79       2110.629    
          21   25712.42    
   vref:
           1   7500.000       3.098607    
           2   22500.00       7.257306    
           3   37500.00       9.722547    
           4   52500.00       11.18232    
           5   67500.00       12.01058    
           6   82500.00       12.42429    
           7   97500.00       12.55589    
           8   112500.0       12.48963    
           9   127500.0       12.28086    
          10   142500.0       11.96697    
          11   157500.0       11.57375    
          12   172500.0       11.11931    
          13   187500.0       10.61656    
          14   202500.0       10.07473    
          15   217500.0       9.500504    
          16   232500.0       8.898669    
          17   247500.0       8.272623    
          18   262500.0       7.624712    
          19   277500.0       6.956459    
          20   292500.0       6.268718    
          21   307500.0       5.561797    
          22   322500.0       4.835507    
          23   337500.0       4.089206    
          24   352500.0       3.321793    
          25   367500.0       2.531677    
          26   382500.0       1.716705    
          27   397500.0      0.8740484    
          28   412500.0      0.0000000E+00
          29   427500.0      0.0000000E+00
          30   442500.0      0.0000000E+00
          31   457500.0      0.0000000E+00
          32   472500.0      0.0000000E+00
          33   487500.0      0.0000000E+00
          34   502500.0      0.0000000E+00
          35   517500.0      0.0000000E+00
          36   532500.0      0.0000000E+00
          37   547500.0      0.0000000E+00
          38   562500.0      0.0000000E+00
          39   577500.0      0.0000000E+00
          40   592500.0      0.0000000E+00
          41   607500.0      0.0000000E+00
          42   622500.0      0.0000000E+00
          43   637500.0      0.0000000E+00
          44   652500.0      0.0000000E+00
          45   667500.0      0.0000000E+00
          46   682500.0      0.0000000E+00
          47   697500.0      0.0000000E+00
          48   712500.0      0.0000000E+00
          49   727500.0      0.0000000E+00
          50   742500.0      0.0000000E+00
          51   757500.0      0.0000000E+00
          52   772500.0      0.0000000E+00
          53   787500.0      0.0000000E+00
          54   802500.0      0.0000000E+00
          55   817500.0      0.0000000E+00
          56   832500.0      0.0000000E+00
          57   847500.0      0.0000000E+00
          58   862500.0      0.0000000E+00
          59   877500.0      0.0000000E+00
          60   892500.0      0.0000000E+00
          61   907500.0      0.0000000E+00
          62   922500.0      0.0000000E+00
          63   937500.0      0.0000000E+00
          64   952500.0      0.0000000E+00
          65   967500.0      0.0000000E+00
          66   982500.0      0.0000000E+00
          67   997500.0      0.0000000E+00
          68   1012500.      0.0000000E+00
          69   1027500.      0.0000000E+00
          70   1042500.      0.0000000E+00
          71   1057500.      0.0000000E+00
          72   1072500.      0.0000000E+00
          73   1087500.      0.0000000E+00
          74   1102500.      0.0000000E+00
          75   1117500.      0.0000000E+00
          76   1132500.      0.0000000E+00
          77   1147500.      0.0000000E+00
          78   1162500.      0.0000000E+00
          79   1177500.      0.0000000E+00
          80   1192500.      0.0000000E+00
          81   1207500.      0.0000000E+00
          82   1222500.      0.0000000E+00
          83   1237500.      0.0000000E+00
          84   1252500.      0.0000000E+00
          85   1267500.      0.0000000E+00
          86   1282500.      0.0000000E+00
          87   1297500.      0.0000000E+00
          88   1312500.      0.0000000E+00
          89   1327500.      0.0000000E+00
          90   1342500.      0.0000000E+00
          91   1357500.      0.0000000E+00
          92   1372500.      0.0000000E+00
          93   1387500.      0.0000000E+00
          94   1402500.      0.0000000E+00
          95   1417500.      0.0000000E+00
          96   1432500.      0.0000000E+00
          97   1447500.      0.0000000E+00
          98   1462500.      0.0000000E+00
          99   1477500.      0.0000000E+00
         100   1492500.      0.0000000E+00
         101   1507500.      0.0000000E+00
   Iterate:
   th,qv,pi =            1   1.398712      1.5327349E-02 -1.5983419E-03
   th,qv,pi =            2   1.229156      1.6302031E-02 -1.5944001E-03
   th,qv,pi =            3   1.259521      1.6134830E-02 -1.5948854E-03
   th,qv,pi =            4   1.253998      1.6164724E-02 -1.5948007E-03
   th,qv,pi =            5   1.254974      1.6159292E-02 -1.5948159E-03
   th,qv,pi =            6   1.254822      1.6160246E-02 -1.5948131E-03
   th,qv,pi =            7   1.254822      1.6160095E-02 -1.5948137E-03
   th,qv,pi =            8   1.254822      1.6160095E-02 -1.5948134E-03
   th,qv,pi =            9   1.254822      1.6160095E-02 -1.5948134E-03
   th,qv,pi =           10   1.254822      1.6160095E-02 -1.5948134E-03
   th,qv,pi =           11   1.254822      1.6160095E-02 -1.5948135E-03
   th,qv,pi =           12   1.254822      1.6160095E-02 -1.5948134E-03
   th,qv,pi =           13   1.254822      1.6160095E-02 -1.5948135E-03
   th,qv,pi =           14   1.254822      1.6160095E-02 -1.5948134E-03
   th,qv,pi =           15   1.254822      1.6160095E-02 -1.5948134E-03
   th,qv,pi =           16   1.254822      1.6160095E-02 -1.5948134E-03
   th,qv,pi =           17   1.254822      1.6160095E-02 -1.5948135E-03
   th,qv,pi =           18   1.254822      1.6160095E-02 -1.5948134E-03
   th,qv,pi =           19   1.254822      1.6160095E-02 -1.5948135E-03
   th,qv,pi =           20   1.254822      1.6160095E-02 -1.5948134E-03
   ids,ide,jds,jde =            1         201           1         201
   ric,rjc =    100.5000       100.5000    
   zk:
           1   588.4107    
           2   1752.718    
           3   2895.428    
           4   4020.939    
           5   5132.126    
           6   6230.945    
           7   7317.512    
           8   8392.333    
           9   9456.436    
          10   10511.07    
          11   11558.41    
          12   12602.23    
          13   13650.01    
          14   14715.47    
          15   15821.05    
          16   16999.55    
          17   18297.04    
          18   19768.20    
          19   21491.16    
          20   23601.79    
          21   25712.42    
   nl_in =           20
   completed vortex init successfully 
  nxc, nyc for perturbation          100         100
  delt for perturbation    6.000000    
  grid%mu_1 from comp   -689.3906    
  full state sounding from comp, ph, grid%p, grid%al, grid%t_1, qv 
  1   0.000E+00  9.483E+04  9.109E-01  2.983E+02  1.520E-02
  2   1.145E+04  8.285E+04  1.016E+00  3.046E+02  9.911E-03
  3   2.272E+04  7.233E+04  1.130E+00  3.092E+02  6.404E-03
  4   3.378E+04  6.307E+04  1.262E+00  3.143E+02  4.225E-03
  5   4.468E+04  5.491E+04  1.425E+00  3.219E+02  3.167E-03
  6   5.555E+04  4.771E+04  1.597E+00  3.270E+02  1.763E-03
  7   6.629E+04  4.137E+04  1.785E+00  3.310E+02  4.179E-04
  8   7.689E+04  3.578E+04  2.000E+00  3.345E+02  0.000E+00
  9   8.737E+04  3.085E+04  2.254E+00  3.390E+02  0.000E+00
 10   9.779E+04  2.650E+04  2.538E+00  3.425E+02  0.000E+00
 11   1.081E+05  2.266E+04  2.837E+00  3.423E+02  0.000E+00
 12   1.184E+05  1.927E+04  3.230E+00  3.472E+02  0.000E+00
 13   1.286E+05  1.628E+04  3.704E+00  3.529E+02  0.000E+00
 14   1.390E+05  1.364E+04  4.275E+00  3.590E+02  0.000E+00
 15   1.496E+05  1.131E+04  5.072E+00  3.725E+02  0.000E+00
 16   1.607E+05  9.254E+03  6.242E+00  3.973E+02  0.000E+00
 17   1.727E+05  7.440E+03  7.879E+00  4.291E+02  0.000E+00
 18   1.861E+05  5.838E+03  1.030E+01  4.720E+02  0.000E+00
 19   2.016E+05  4.426E+03  1.396E+01  5.245E+02  0.000E+00
 20   2.201E+05  3.179E+03  1.969E+01  5.841E+02  0.000E+00
  pert state sounding from comp, grid%ph_1, pp, alp, grid%t_1, qv 
  1   0.000E+00 -3.068E+02  1.737E-02 -1.690E+00  1.520E-02
  2   1.395E+02 -3.723E+02  1.776E-02  4.602E+00  9.911E-03
  3   2.588E+02 -3.841E+02  1.153E-02  9.240E+00  6.404E-03
  4   2.948E+02 -3.684E+02  9.068E-03  1.427E+01  4.225E-03
  5   2.971E+02 -3.414E+02  1.901E-02  2.193E+01  3.167E-03
  6   3.668E+02 -3.087E+02  1.811E-02  2.705E+01  1.763E-03
  7   4.141E+02 -2.711E+02  1.240E-02  3.096E+01  4.179E-04
  8   4.138E+02 -2.330E+02  1.049E-02  3.450E+01  0.000E+00
  9   3.955E+02 -1.984E+02  2.017E-02  3.902E+01  0.000E+00
 10   4.163E+02 -1.679E+02  2.809E-02  4.252E+01  0.000E+00
 11   4.590E+02 -1.409E+02  7.816E-03  4.230E+01  0.000E+00
 12   4.156E+02 -1.171E+02  2.871E-02  4.716E+01  0.000E+00
 13   4.354E+02 -9.608E+01  4.526E-02  5.291E+01  0.000E+00
 14   4.903E+02 -7.755E+01  2.858E-02  5.900E+01  0.000E+00
 15   4.872E+02 -6.119E+01  2.236E-02  7.253E+01  0.000E+00
 16   4.586E+02 -4.676E+01  6.294E-02  9.726E+01  0.000E+00
 17   4.963E+02 -3.402E+01  4.327E-02  1.291E+02  0.000E+00
 18   4.763E+02 -2.278E+01  1.186E-01  1.720E+02  0.000E+00
 19   5.471E+02 -1.286E+01  1.798E-01  2.245E+02  0.000E+00
 20   6.571E+02 -4.104E+00  1.118E-01  2.841E+02  0.000E+00
  wrf: SUCCESS COMPLETE IDEAL INIT
