taskid: 1 hostname: prod-102
Quilting with   1 groups of   0 I/O tasks.
 Ntasks in X            1 , ntasks in Y            2
  Domain # 1: dx = 15000.000 m
--- ERROR: ghg_input available only for these radiation schemes: CAM, RRTM, RRTMG, RRTMG_fast
           And the LW and SW schemes must be reasonably paired together:
           OK = CAM LW with CAM SW
           OK = RRTM, RRTMG LW or SW, RRTMG_fast LW or SW may be mixed
WRF V4.4.1 MODEL
No git found or not a git repository, git commit version not available.
 *************************************
 Parent domain
 ids,ide,jds,jde            1         201           1         201
 ims,ime,jms,jme           -4         206          94         206
 ips,ipe,jps,jpe            1         201         101         201
 *************************************
DYNAMICS OPTION: Eulerian Mass Coordinate
   alloc_space_field: domain            1 ,              305737864  bytes allocated
  med_initialdata_input: calling input_input
   Input data is acceptable to use:
 CURRENT DATE          = 2007-09-01_00:00:00
 SIMULATION START DATE = 2007-09-01_00:00:00
Max map factor in domain 1 =  1.00. Scale the dt in the model accordingly.
INPUT LandUse = "USGS"
 LANDUSE TYPE = "USGS" FOUND          41  CATEGORIES           2  SEASONS WATER CATEGORY =           16  SNOW CATEGORY =            0
 head_grid%id=            1
 ids, ide, jds, jde, kds, kde=            1         201           1         201
           1          21
 ims, ime, jms, jme, kms, kme=           -4         206          94         206
           1          21
 ips, ipe, jps, jpe, kps, kpe=            1         201         101         201
           1          21
 Read trajectory from file: /albedo/work/user/chshao001/PDAFTOOLS/ distribute_state_pdaf: initialization of model fields here!
   9.710361      -7.680201      -8809.526     -1.7594315E-02
   12.38970      -12.38970       12079.40      2.4124885E-02
   2.441870      -1.491692       7.807929      1.5593932E-05
   882.3965      0.0000000E+00  1.7451061E+08   348.5312    
   283.2577      -1.388516      3.0807930E+07   61.52935    
  1.8065417E-02  0.0000000E+00   833.5944    
  1.6000506E-02  0.0000000E+00   94.34547    
  1.8870765E-03  0.0000000E+00   1.283018    
 distribute_state_pdaf: DONE!
 init_pdaf, DONE!
 Tile Strategy is not specified. Assuming 1D-Y
WRF TILE   1 IS      1 IE    201 JS    101 JE    201
WRF NUMBER OF TILES =   1
d01 2007-09-01_00:00:00  ----------------------------------------
d01 2007-09-01_00:00:00  W-DAMPING  BEGINS AT W-COURANT NUMBER =    1.000000
d01 2007-09-01_00:00:00  ----------------------------------------
.13323       3673.946      7.3375753E-03
   12.71106      -12.38970       8972.223      1.7919252E-02
   2.905771      -1.347337       113.8761      2.2743236E-04
   882.3965      0.0000000E+00  1.1794986E+08   235.5685    
   283.2577      -1.861518      3.0662054E+07   61.23801    
  1.8052250E-02  0.0000000E+00   841.0726    
  1.6000506E-02  0.0000000E+00   94.99895    
  2.8490303E-03  0.0000000E+00  0.9502939    
 distribute_state_pdaf: DONE!
 init_pdaf, DONE!
 Tile Strategy is not specified. Assuming 1D-Y
WRF TILE   1 IS      1 IE    201 JS    101 JE    201
WRF NUMBER OF TILES =   1
d01 2007-09-01_00:00:00  ----------------------------------------
d01 2007-09-01_00:00:00  W-DAMPING  BEGINS AT W-COURANT NUMBER =    1.000000
d01 2007-09-01_00:00:00  ----------------------------------------
