taskid: 45 hostname: prod-110
 module_io_quilt_old.F        2931 F
Quilting with   1 groups of   0 I/O tasks.
 Ntasks in X            8 , ntasks in Y            8
  Domain # 1: dx = 15000.000 m
--- ERROR: ghg_input available only for these radiation schemes: CAM, RRTM, RRTMG, RRTMG_fast
           And the LW and SW schemes must be reasonably paired together:
           OK = CAM LW with CAM SW
           OK = RRTM, RRTMG LW or SW, RRTMG_fast LW or SW may be mixed
WRF V4.4.1 MODEL
No git found or not a git repository, git commit version not available.
 *************************************
 Parent domain
 ids,ide,jds,jde            1         201           1         201
 ims,ime,jms,jme          119         157         119         157
 ips,ipe,jps,jpe          126         150         126         150
 *************************************
DYNAMICS OPTION: Eulerian Mass Coordinate
   alloc_space_field: domain            1 ,               24937256  bytes allocated
  med_initialdata_input: calling input_input
   Input data is acceptable to use:
 CURRENT DATE          = 2007-09-01_00:00:00
 SIMULATION START DATE = 2007-09-01_00:00:00
Max map factor in domain 1 =  1.00. Scale the dt in the model accordingly.
INPUT LandUse = "USGS"
 LANDUSE TYPE = "USGS" FOUND          41  CATEGORIES           2  SEASONS WATER CATEGORY =           16  SNOW CATEGORY =            0
[prod-110:17547:0:17547] Caught signal 11 (Segmentation fault: address not mapped to object at address 0x18)
